Version 4.1
SHEET 1 880 680
WIRE -16 48 -16 32
WIRE 0 48 0 32
WIRE 16 48 16 32
WIRE 32 48 32 32
WIRE 48 48 48 32
WIRE 64 48 64 32
WIRE 80 48 80 32
WIRE 96 48 96 32
WIRE 112 48 112 32
WIRE 336 48 336 32
WIRE 352 48 352 32
WIRE 368 48 368 32
WIRE 384 48 384 32
WIRE 608 48 608 32
WIRE 624 48 624 32
WIRE 640 48 640 32
WIRE 656 48 656 32
WIRE 672 48 672 32
WIRE 688 48 688 32
WIRE 704 48 704 32
WIRE -16 112 -16 96
WIRE 0 112 0 96
WIRE 16 112 16 96
WIRE 32 112 32 96
WIRE 48 112 48 96
WIRE 64 112 64 96
WIRE 80 112 80 96
WIRE 96 112 96 96
WIRE 112 112 112 96
WIRE 608 112 608 96
WIRE 624 112 624 96
WIRE 640 112 640 96
WIRE 656 112 656 96
WIRE 672 112 672 96
WIRE 688 112 688 96
WIRE 704 112 704 96
TEXT 0 72 Left 2 ;LM3914
TEXT 608 72 Left 2 ;LM324N
TEXT 320 72 Left 2 ;ST1146
RECTANGLE Normal 128 48 -32 96 2
RECTANGLE Normal 720 96 592 48 2
RECTANGLE Normal 416 96 304 48 2
